ROCKS----1----*----2----*----3----*----4----*----5----*----6----*----7----*----8
HydrL    1     2.6e3       0.3  7.50e-14  7.50e-14  7.50e-14      3.92      1000
      5e-7              0.50e0                                  5.0e-2     3.0e0
